/*--------------------------------*- C++ -*----------------------------------*\
| =========                 |                                                 |
| \\      /  F ield         | OpenFOAM: The Open Source CFD Toolbox           |
|  \\    /   O peration     | Version:  v1906                                 |
|   \\  /    A nd           | Web:      www.OpenFOAM.com                      |
|    \\/     M anipulation  |                                                 |
\*---------------------------------------------------------------------------*/
FoamFile
{
    version     2.0;
    format      ascii;
    class       polyBoundaryMesh;
    location    "constant/polyMesh";
    object      boundary;
}
// * * * * * * * * * * * * * * * * * * * * * * * * * * * * * * * * * * * * * //

5
(
    inlet
    {
        type            patch;
        nFaces          396;
        startFace       92311;
    }
    outlet
    {
        type            patch;
        nFaces          396;
        startFace       92707;
    }
    bottom
    {
        type            wall;
        inGroups        1(wall);
        nFaces          542;
        startFace       93103;
    }
    atmosphere
    {
        type            patch;
        nFaces          440;
        startFace       93645;
    }
    frontAndBack
    {
        type            wall;
        inGroups        1(wall);
        nFaces          720;
        startFace       94085;
    }
)

// ************************************************************************* //
