/*---------------------------------------------------------------------------*\
| =========                 |                                                 |
| \\      /  F ield         | OpenFOAM: The Open Source CFD Toolbox           |
|  \\    /   O peration     | Version:  1.3                                   |
|   \\  /    A nd           | Web:      http://www.openfoam.org               |
|    \\/     M anipulation  |                                                 |
\*---------------------------------------------------------------------------*/
FoamFile
{
    version         2.0;
    format          ascii;
    location        "system";
    class           dictionary;
    object          controlDict;
}

// * * * * * * * * * * * * * * * * * * * * * * * * * * * * * * * * * * * * * //

#include "../setup"

application     olaFlow;

startFrom       latestTime;

startTime       0;

stopAt          endTime;

endTime         $simEnd;

deltaT          $dT;

writeControl    adjustableRunTime;

writeInterval   0.05;

purgeWrite      0;

writeFormat     ascii;

writePrecision  7;

writeCompression uncompressed;

timeFormat      general;

timePrecision   6;

runTimeModifiable yes;

adjustTimeStep  yes;

maxCo           0.5;
maxAlphaCo	    0.5;
maxDeltaT       0.025;

libs
(
    "libturbinesFoam.so"
);

DebugSwitches
{
    axialFlowTurbineALSource 0;  // Any value greater than 0 activates
    actuatorLineSource  0;
    actuatorLineElement 0;
    LeishmanBeddoes 0;
}

// ************************************************************************* //
