/*---------------------------------------------------------------------------*\
| =========                 |                                                 |
| \\      /  F ield         | OpenFOAM: The Open Source CFD Toolbox           |
|  \\    /   O peration     | Version:  1.3                                   |
|   \\  /    A nd           | Web:      http://www.openfoam.org               |
|    \\/     M anipulation  |                                                 |
\*---------------------------------------------------------------------------*/
FoamFile
{
    version         2.0;
    format          ascii;
    location        "system";
    class           dictionary;
    object          controlDict;
}

// * * * * * * * * * * * * * * * * * * * * * * * * * * * * * * * * * * * * * //

#include "../setup"

application     olaFlow;

startFrom       latestTime;

startTime       0;

stopAt          endTime;

endTime         $simEnd;

deltaT          $dT;

writeControl    adjustableRunTime;

writeInterval   0.05;

purgeWrite      2;

writeFormat     ascii;

writePrecision  12;

writeCompression uncompressed;

timeFormat      general;

timePrecision   6;

runTimeModifiable no;

adjustTimeStep  no;

maxCo           0.5;
maxAlphaCo	    0.5;
maxDeltaT       0.025;

libs
(
    "libturbinesFoam.so"
    "libOpenFOAM.so"
    "libsampling.so"
);

DebugSwitches
{
    axialFlowTurbineALSource 0;  // Any value greater than 0 activates
    actuatorLineSource  0;
    actuatorLineElement 0;
    LeishmanBeddoes 0;
}

functions
{
    Gauge1
    {
        type    sets;
        libs ("libsampling.so");
        writeControl    timeStep;
        writeInterval   1;
        setFormat       raw;
        surfaceFormat   raw;
        interpolationScheme cellPoint;
        fields          ( alpha.water );

        sets
        (
            data
            {
                type midPointAndFace;
                axis z;
                start (2.500001 #calc "$Hub_y+0.000001" 0);
                end   (2.500001 #calc "$Hub_y+0.000001" $z);
            }
        );
    }
    Gauge2
    {
        type    sets;
        libs ("libsampling.so");
        writeControl    timeStep;
        writeInterval   1;
        setFormat       raw;
        surfaceFormat   raw;
        interpolationScheme cellPoint;
        fields          ( alpha.water );

        sets
        (
            data
            {
                type midPointAndFace;
                axis z;
                start (4.000001 #calc "$Hub_y+0.000001" 0);
                end   (4.000001 #calc "$Hub_y+0.000001" $z);
            }
        );
    }
    Gauge3
    {
        type    sets;
        libs ("libsampling.so");
        writeControl    timeStep;
        writeInterval   1;
        setFormat       raw;
        surfaceFormat   raw;
        interpolationScheme cellPoint;
        fields          ( alpha.water );

        sets
        (
            data
            {
                type midPointAndFace;
                axis z;
                start (4.500001 #calc "$Hub_y+0.000001" 0);
                end   (4.500001 #calc "$Hub_y+0.000001" $z);
                nPoints #calc "$z/0.001";
            }
        );
    }
    Gauge4
    {
        type    sets;
        libs ("libsampling.so");
        writeControl    timeStep;
        writeInterval   1;
        setFormat       raw;
        surfaceFormat   raw;
        interpolationScheme cellPoint;
        fields          ( alpha.water );

        sets
        (
            data
            {
                type midPointAndFace;
                axis z;
                start (5.000001 #calc "$Hub_y+0.000001" 1.5);
                end   (5.000001 #calc "$Hub_y+0.000001" $z);
            }
        );
    }
    Gauge5
    {
        type    sets;
        libs ("libsampling.so");
        writeControl    timeStep;
        writeInterval   1;
        setFormat       raw;
        surfaceFormat   raw;
        interpolationScheme cellPoint;
        fields          ( alpha.water );

        sets
        (
            data
            {
                type midPointAndFace;
                axis z;
                start (5.500001 #calc "$Hub_y+0.000001" 0);
                end   (5.500001 #calc "$Hub_y+0.000001" $z);
            }
        );
    }
    Gauge6
    {
        type    sets;
        libs ("libsampling.so");
        writeControl    timeStep;
        writeInterval   1;
        setFormat       raw;
        surfaceFormat   raw;
        interpolationScheme cellPoint;
        fields          ( alpha.water );

        sets
        (
            data
            {
                type midPointAndFace;
                axis z;
                start (6.000001 #calc "$Hub_y+0.000001" 0);
                end   (6.000001 #calc "$Hub_y+0.000001" $z);
            }
        );
    }
    Gauge7
    {
        type    sets;
        libs ("libsampling.so");
        writeControl    timeStep;
        writeInterval   1;
        setFormat       raw;
        surfaceFormat   raw;
        interpolationScheme cellPoint;
        fields          ( alpha.water );

        sets
        (
            data
            {
                type midPointAndFace;
                axis z;
                start (7.500001 #calc "$Hub_y+0.000001" 0);
                end   (7.500001 #calc "$Hub_y+0.000001" $z);
            }
        );
    }
    cuttingPlanes
    {
        type              surfaces;
        outputControl     timeStep;
        outputInterval     10;
        surfaceFormat    vtk;
        fields   (U alpha.water force.turbine);
        interpolationScheme          cellPoint;
        surfaces
            (
                yplane
                {
                type cuttingPlane;
                planeType pointAndNormal;
                pointAndNormalDict
                {
                    point (0 #calc "$y/2" 0);
                    normal (0 -1 0);
                }
                interpolate true;
                }
                xplane
                {
                type cuttingPlane;
                planeType pointAndNormal;
                pointAndNormalDict
                {
                    point ($Hub_x 0 0);
                    normal (1 0 0);
                }
                interpolate true;
                }
            );
    }
}
// ************************************************************************* //
