/*--------------------------------*- C++ -*----------------------------------*\
| =========                 |                                                 |
| \\      /  F ield         | OpenFOAM: The Open Source CFD Toolbox           |
|  \\    /   O peration     | Version:  6                                     |
|   \\  /    A nd           | Web:      www.OpenFOAM.org                      |
|    \\/     M anipulation  |                                                 |
\*---------------------------------------------------------------------------*/
FoamFile
{
    version     2.0;
    format      ascii;
    class       dictionary;
    location    "system";
    object      fvOptions;
}
// * * * * * * * * * * * * * * * * * * * * * * * * * * * * * * * * * * * * * //

#include "../setup"

turbine
{
    type            axialFlowTurbineALSource;
    active          on;

    axialFlowTurbineALSourceCoeffs
    {
        fieldNames          (U);
        selectionMode       cellSet; // cellSet || points || cellZone
        cellSet             turbine;
        origin              ($Hub_x $Hub_y $Hub_z);
        axis                (-1 0 0);
        verticalDirection   (0 0 1);
        freeStreamVelocity  ($U_mean 0 0);
        tipSpeedRatio       $TSR;
        rotorRadius         0.362;
        rhoRef              998.57;

        dynamicStall
        {
            active          off;
            dynamicStallModel LeishmanBeddoes;
        }

        endEffects
        {
            active          on;
            endEffectsModel Glauert; // Glauert || Shen || liftingLine
            GlauertCoeffs
            {
                tipEffects  on;
                rootEffects on;
            }
            ShenCoeffs
            {
                c1          0.125;
                c2          21;
                tipEffects  on;
                rootEffects on;
            }
        }

        blades
        {
            blade1
            {
                writePerf   true;
                writeElementPerf true;
                nElements   22;
                elementProfiles $elementProfiles;
                elementData
                (
                    #include "elementData"
                );
            }
            blade2
            {
                $blade1;
                //writePerf   false;
                //writeElementPerf false;
                azimuthalOffset 120.0;
            }
            blade3
            {
                $blade2;
                azimuthalOffset 240.0;
            }
        }

        tower
        {
            includeInTotalDrag  false; // default is false
            nElements   6;
            elementProfiles (cylinder);
            elementData
            ( // axial distance (turbine axis), height, diameter
                (-0.5 0.000 0.05)
                (-0.5 $Hub_z 0.05)
            );
        }

        hub
        {
            nElements   1;
            elementProfiles (cylinder);
            //Info << "\n\n\n\n\n\nHub Radius: " << ${hubRadius} << "\n\n\n";
            elementData
            ( // axial distance, height, diameter
                (0   0.05865  0.05865)
                (0  -0.05865  0.05865)
            );
        }

        profileData
        {
            // 2D
            NACA_63418_Re0_01e6
            {
                data (#include "../resources/IFREMER_gen2/foilData/2D/NACA_63418_Re0_01e6");
            }
            NACA_63418_Re0_02e6
            {
                data (#include "../resources/IFREMER_gen2/foilData/2D/NACA_63418_Re0_02e6");
            }
            NACA_63418_Re0_03e6
            {
                data (#include "../resources/IFREMER_gen2/foilData/2D/NACA_63418_Re0_03e6");
            }
            NACA_63418_Re0_04e6
            {
                data (#include "../resources/IFREMER_gen2/foilData/2D/NACA_63418_Re0_04e6");
            }
            NACA_63418_Re0_05e6
            {
                data (#include "../resources/IFREMER_gen2/foilData/2D/NACA_63418_Re0_05e6");
            }
            NACA_63418_Re0_06e6
            {
                data (#include "../resources/IFREMER_gen2/foilData/2D/NACA_63418_Re0_06e6");
            }
            NACA_63418_Re0_07e6
            {
                data (#include "../resources/IFREMER_gen2/foilData/2D/NACA_63418_Re0_07e6");
            }
            NACA_63418_Re0_08e6
            {
                data (#include "../resources/IFREMER_gen2/foilData/2D/NACA_63418_Re0_08e6");
            }
            NACA_63418_Re0_09e6
            {
                data (#include "../resources/IFREMER_gen2/foilData/2D/NACA_63418_Re0_09e6");
            }
            NACA_63418_Re0_10e6
            {
                data (#include "../resources/IFREMER_gen2/foilData/2D/NACA_63418_Re0_10e6");
            }
            NACA_63418_Re0_11e6
            {
                data (#include "../resources/IFREMER_gen2/foilData/2D/NACA_63418_Re0_11e6");
            }
            NACA_63418_Re0_12e6
            {
                data (#include "../resources/IFREMER_gen2/foilData/2D/NACA_63418_Re0_12e6");
            }
            NACA_63418_Re0_13e6
            {
                data (#include "../resources/IFREMER_gen2/foilData/2D/NACA_63418_Re0_13e6");
            }
            NACA_63418_Re0_14e6
            {
                data (#include "../resources/IFREMER_gen2/foilData/2D/NACA_63418_Re0_14e6");
            }
            NACA_63418_Re0_15e6
            {
                data (#include "../resources/IFREMER_gen2/foilData/2D/NACA_63418_Re0_15e6");
            }
            NACA_63418_Re0_16e6
            {
                data (#include "../resources/IFREMER_gen2/foilData/2D/NACA_63418_Re0_16e6");
            }
            NACA_63418_Re0_17e6
            {
                data (#include "../resources/IFREMER_gen2/foilData/2D/NACA_63418_Re0_17e6");
            }
            NACA_63418_Re0_18e6
            {
                data (#include "../resources/IFREMER_gen2/foilData/2D/NACA_63418_Re0_18e6");
            }
            NACA_63418_Re0_19e6
            {
                data (#include "../resources/IFREMER_gen2/foilData/2D/NACA_63418_Re0_19e6");
            }
            NACA_63418_Re0_20e6
            {
                data (#include "../resources/IFREMER_gen2/foilData/2D/NACA_63418_Re0_20e6");
            }
            NACA_63418_Re0_21e6
            {
                data (#include "../resources/IFREMER_gen2/foilData/2D/NACA_63418_Re0_21e6");
            }
            NACA_63418_Re0_22e6
            {
                data (#include "../resources/IFREMER_gen2/foilData/2D/NACA_63418_Re0_22e6");
            }
            cylinder
            {
                data ((-180 0 1.1)(180 0 1.1));
            }
        }
    }
}

// ************************************************************************* //
