/*--------------------------------*- C++ -*----------------------------------*\
| =========                 |                                                 |
| \\      /  F ield         | OpenFOAM: The Open Source CFD Toolbox           |
|  \\    /   O peration     | Version:  6                                     |
|   \\  /    A nd           | Web:      www.OpenFOAM.org                      |
|    \\/     M anipulation  |                                                 |
\*---------------------------------------------------------------------------*/
FoamFile
{
    version     2.0;
    format      ascii;
    class       dictionary;
    location    "system";
    object      fvOptions;
}
// * * * * * * * * * * * * * * * * * * * * * * * * * * * * * * * * * * * * * //


turbine
{
    type            axialFlowTurbineALSource;
    active          on;

    axialFlowTurbineALSourceCoeffs
    {
        fieldNames          (U);
        selectionMode       cellSet; // cellSet || points || cellZone
        cellSet             turbine;
        origin              (5 -2 1);
        axis                (-1 0 0);
        verticalDirection   (0 0 1);
        freeStreamVelocity  (0.8 0 0);
        tipSpeedRatio       6.0;
        rotorRadius         0.362;
        rhoRef              998.57;

        dynamicStall
        {
            active          off;
            dynamicStallModel LeishmanBeddoes;
        }

        endEffects
        {
            active          on;
            endEffectsModel Glauert; // Glauert || Shen || liftingLine
            GlauertCoeffs
            {
                tipEffects  on;
                rootEffects on;
            }
            ShenCoeffs
            {
                c1          0.125;
                c2          21;
                tipEffects  on;
                rootEffects on;
            }
        }

        blades
        {
            blade1
            {
                writePerf   true;
                writeElementPerf true;
                nElements   46;
                elementProfiles
                (
                    NACA_63418_Re0_05e6
                    NACA_63418_Re0_05e6
                    NACA_63418_Re0_05e6
                    NACA_63418_Re0_05e6
                    NACA_63418_Re0_10e6
                    NACA_63418_Re0_15e6
                    NACA_63418_Re0_15e6
                    NACA_63418_Re0_15e6
                    NACA_63418_Re0_15e6
                    NACA_63418_Re0_15e6
                    NACA_63418_Re0_15e6
                    NACA_63418_Re0_15e6
                    NACA_63418_Re0_15e6
                    NACA_63418_Re0_15e6
                    NACA_63418_Re0_15e6
                    NACA_63418_Re0_20e6
                    NACA_63418_Re0_20e6
                    NACA_63418_Re0_20e6
                    NACA_63418_Re0_20e6
                    NACA_63418_Re0_20e6
                    NACA_63418_Re0_20e6
                    NACA_63418_Re0_20e6
                    NACA_63418_Re0_10e6
                );
                elementData
                (
                    #include "elementData"
                );
            }
            blade2
            {
                $blade1;
                //writePerf   false;
                //writeElementPerf false;
                azimuthalOffset 120.0;
            }
            blade3
            {
                $blade2;
                azimuthalOffset 240.0;
            }
        }

        tower
        {
            includeInTotalDrag  false; // default is false
            nElements   6;
            elementProfiles (cylinder);
            elementData
            ( // axial distance (turbine axis), height, diameter
                (-0.5 0.000 0.05)
                (-0.5 1.000 0.05)
            );
        }

        hub
        {
            nElements   1;
            elementProfiles (cylinder);
            elementData
            ( // axial distance, height, diameter
                (0  0.05865 0.05865)
                (0 -0.05865 0.05865)
            );
        }

        profileData
        {

            NACA_63418_Re0_05e6
            {
                data (#include "../resources/foilData/NACA_63418_Re0_05e6");
            }
            NACA_63418_Re0_10e6
            {
                data (#include "../resources/foilData/NACA_63418_Re0_10e6");
            }
            NACA_63418_Re0_15e6
            {
                data (#include "../resources/foilData/NACA_63418_Re0_15e6");
            }
            NACA_63418_Re0_20e6
            {
                data (#include "../resources/foilData/NACA_63418_Re0_20e6");
            }
            cylinder
            {
                data ((-180 0 1.1)(180 0 1.1));
            }
        }
    }
}

// ************************************************************************* //
