/*--------------------------------*- C++ -*----------------------------------*\
| =========                 |                                                 |
| \\      /  F ield         | OpenFOAM: The Open Source CFD Toolbox           |
|  \\    /   O peration     | Version:  6                                     |
|   \\  /    A nd           | Web:      www.OpenFOAM.org                      |
|    \\/     M anipulation  |                                                 |
\*---------------------------------------------------------------------------*/
FoamFile
{
    version     2.0;
    format      ascii;
    class       dictionary;
    location    "system";
    object      fvOptions;
}
// * * * * * * * * * * * * * * * * * * * * * * * * * * * * * * * * * * * * * //

#include "../setup"

turbine
{
    type            axialFlowTurbineALSource;
    active          on;

    axialFlowTurbineALSourceCoeffs
    {
        fieldNames          (U);
        selectionMode       cellSet; // cellSet || points || cellZone
        cellSet             turbine;
        origin              (5 -2 1);
        axis                (-1 0 0);
        verticalDirection   (0 0 1);
        freeStreamVelocity  $current;
        tipSpeedRatio       $TSR;
        rotorRadius         0.362;
        rhoRef              998.57;

        dynamicStall
        {
            active          off;
            dynamicStallModel LeishmanBeddoes;
        }

        endEffects
        {
            active          on;
            endEffectsModel Glauert; // Glauert || Shen || liftingLine
            GlauertCoeffs
            {
                tipEffects  on;
                rootEffects on;
            }
            ShenCoeffs
            {
                c1          0.125;
                c2          21;
                tipEffects  on;
                rootEffects on;
            }
        }

        blades
        {
            blade1
            {
                writePerf   true;
                writeElementPerf true;
                nElements   22;
                elementProfiles $elementProfiles;
                elementData
                (
                    #include "elementData"
                );
            }
            blade2
            {
                $blade1;
                //writePerf   false;
                //writeElementPerf false;
                azimuthalOffset 120.0;
            }
            blade3
            {
                $blade2;
                azimuthalOffset 240.0;
            }
        }

        tower
        {
            includeInTotalDrag  false; // default is false
            nElements   6;
            elementProfiles (cylinder);
            elementData
            ( // axial distance (turbine axis), height, diameter
                (-0.5 0.000 0.05)
                (-0.5 1.000 0.05)
            );
        }

        hub
        {
            nElements   1;
            elementProfiles (cylinder);
            //Info << "\n\n\n\n\n\nHub Radius: " << ${hubRadius} << "\n\n\n";
            elementData
            ( // axial distance, height, diameter
                (0   0.05865  0.05865)
                (0  -0.05865  0.05865)
            );
        }

        profileData
        {

            // 2D
            NACA_63418_Re0_01e6
            {
                data (#include "../resources/foilData/2D/NACA_63418_Re0_01e6");
            }
            NACA_63418_Re0_02e6
            {
                data (#include "../resources/foilData/2D/NACA_63418_Re0_02e6");
            }
            NACA_63418_Re0_03e6
            {
                data (#include "../resources/foilData/2D/NACA_63418_Re0_03e6");
            }
            NACA_63418_Re0_04e6
            {
                data (#include "../resources/foilData/2D/NACA_63418_Re0_04e6");
            }
            NACA_63418_Re0_05e6
            {
                data (#include "../resources/foilData/2D/NACA_63418_Re0_05e6");
            }
            NACA_63418_Re0_06e6
            {
                data (#include "../resources/foilData/2D/NACA_63418_Re0_06e6");
            }
            NACA_63418_Re0_07e6
            {
                data (#include "../resources/foilData/2D/NACA_63418_Re0_07e6");
            }
            NACA_63418_Re0_08e6
            {
                data (#include "../resources/foilData/2D/NACA_63418_Re0_08e6");
            }
            NACA_63418_Re0_09e6
            {
                data (#include "../resources/foilData/2D/NACA_63418_Re0_09e6");
            }
            NACA_63418_Re0_10e6
            {
                data (#include "../resources/foilData/2D/NACA_63418_Re0_10e6");
            }
            NACA_63418_Re0_11e6
            {
                data (#include "../resources/foilData/2D/NACA_63418_Re0_11e6");
            }
            NACA_63418_Re0_12e6
            {
                data (#include "../resources/foilData/2D/NACA_63418_Re0_12e6");
            }
            NACA_63418_Re0_13e6
            {
                data (#include "../resources/foilData/2D/NACA_63418_Re0_13e6");
            }
            NACA_63418_Re0_14e6
            {
                data (#include "../resources/foilData/2D/NACA_63418_Re0_14e6");
            }
            NACA_63418_Re0_15e6
            {
                data (#include "../resources/foilData/2D/NACA_63418_Re0_15e6");
            }
            NACA_63418_Re0_16e6
            {
                data (#include "../resources/foilData/2D/NACA_63418_Re0_16e6");
            }
            NACA_63418_Re0_17e6
            {
                data (#include "../resources/foilData/2D/NACA_63418_Re0_17e6");
            }
            NACA_63418_Re0_18e6
            {
                data (#include "../resources/foilData/2D/NACA_63418_Re0_18e6");
            }
            NACA_63418_Re0_19e6
            {
                data (#include "../resources/foilData/2D/NACA_63418_Re0_19e6");
            }
            NACA_63418_Re0_20e6
            {
                data (#include "../resources/foilData/2D/NACA_63418_Re0_20e6");
            }
            NACA_63418_Re0_21e6
            {
                data (#include "../resources/foilData/2D/NACA_63418_Re0_21e6");
            }
            NACA_63418_Re0_22e6
            {
                data (#include "../resources/foilData/2D/NACA_63418_Re0_22e6");
            }


            // 3D TSR1
            NACA_63418_Re0_02e6_roR0_1620_3D_TSR1
            {
                data (#include "../resources/foilData/3D/TSR1/PolarRe0_02e6NCrit9_roR0_1620_3D_extrap.dat");
            }
            NACA_63418_Re0_02e6_roR0_1782_3D_TSR1
            {
                data (#include "../resources/foilData/3D/TSR1/PolarRe0_02e6NCrit9_roR0_1782_3D_extrap.dat");
            }
            NACA_63418_Re0_02e6_roR0_1830_3D_TSR1
            {
                data (#include "../resources/foilData/3D/TSR1/PolarRe0_02e6NCrit9_roR0_1830_3D_extrap.dat");
            }
            NACA_63418_Re0_04e6_roR0_2249_3D_TSR1
            {
                data (#include "../resources/foilData/3D/TSR1/PolarRe0_04e6NCrit9_roR0_2249_3D_extrap.dat");
            }
            NACA_63418_Re0_07e6_roR0_2668_3D_TSR1
            {
                data (#include "../resources/foilData/3D/TSR1/PolarRe0_07e6NCrit9_roR0_2668_3D_extrap.dat");
            }
            NACA_63418_Re0_07e6_roR0_3087_3D_TSR1
            {
                data (#include "../resources/foilData/3D/TSR1/PolarRe0_07e6NCrit9_roR0_3087_3D_extrap.dat");
            }
            NACA_63418_Re0_06e6_roR0_3506_3D_TSR1
            {
                data (#include "../resources/foilData/3D/TSR1/PolarRe0_06e6NCrit9_roR0_3506_3D_extrap.dat");
            }
            NACA_63418_Re0_06e6_roR0_3925_3D_TSR1
            {
                data (#include "../resources/foilData/3D/TSR1/PolarRe0_06e6NCrit9_roR0_3925_3D_extrap.dat");
            }
            NACA_63418_Re0_06e6_roR0_4344_3D_TSR1
            {
                data (#include "../resources/foilData/3D/TSR1/PolarRe0_06e6NCrit9_roR0_4344_3D_extrap.dat");
            }
            NACA_63418_Re0_06e6_roR0_4763_3D_TSR1
            {
                data (#include "../resources/foilData/3D/TSR1/PolarRe0_06e6NCrit9_roR0_4763_3D_extrap.dat");
            }
            NACA_63418_Re0_05e6_roR0_5182_3D_TSR1
            {
                data (#include "../resources/foilData/3D/TSR1/PolarRe0_05e6NCrit9_roR0_5182_3D_extrap.dat");
            }
            NACA_63418_Re0_05e6_roR0_5601_3D_TSR1
            {
                data (#include "../resources/foilData/3D/TSR1/PolarRe0_05e6NCrit9_roR0_5601_3D_extrap.dat");
            }
            NACA_63418_Re0_05e6_roR0_6019_3D_TSR1
            {
                data (#include "../resources/foilData/3D/TSR1/PolarRe0_05e6NCrit9_roR0_6019_3D_extrap.dat");
            }
            NACA_63418_Re0_05e6_roR0_6439_3D_TSR1
            {
                data (#include "../resources/foilData/3D/TSR1/PolarRe0_05e6NCrit9_roR0_6439_3D_extrap.dat");
            }
            NACA_63418_Re0_05e6_roR0_6858_3D_TSR1
            {
                data (#include "../resources/foilData/3D/TSR1/PolarRe0_05e6NCrit9_roR0_6858_3D_extrap.dat");
            }
            NACA_63418_Re0_05e6_roR0_7276_3D_TSR1
            {
                data (#include "../resources/foilData/3D/TSR1/PolarRe0_05e6NCrit9_roR0_7276_3D_extrap.dat");
            }
            NACA_63418_Re0_05e6_roR0_7696_3D_TSR1
            {
                data (#include "../resources/foilData/3D/TSR1/PolarRe0_05e6NCrit9_roR0_7696_3D_extrap.dat");
            }
            NACA_63418_Re0_05e6_roR0_8115_3D_TSR1
            {
                data (#include "../resources/foilData/3D/TSR1/PolarRe0_05e6NCrit9_roR0_8115_3D_extrap.dat");
            }
            NACA_63418_Re0_05e6_roR0_8533_3D_TSR1
            {
                data (#include "../resources/foilData/3D/TSR1/PolarRe0_05e6NCrit9_roR0_8533_3D_extrap.dat");
            }
            NACA_63418_Re0_05e6_roR0_8953_3D_TSR1
            {
                data (#include "../resources/foilData/3D/TSR1/PolarRe0_05e6NCrit9_roR0_8953_3D_extrap.dat");
            }
            NACA_63418_Re0_05e6_roR0_9372_3D_TSR1
            {
                data (#include "../resources/foilData/3D/TSR1/PolarRe0_05e6NCrit9_roR0_9372_3D_extrap.dat");
            }
            NACA_63418_Re0_05e6_roR0_9790_3D_TSR1
            {
                data (#include "../resources/foilData/3D/TSR1/PolarRe0_05e6NCrit9_roR0_9790_3D_extrap.dat");
            }
            NACA_63418_Re0_02e6_roR1_0000_3D_TSR1
            {
                data (#include "../resources/foilData/3D/TSR1/PolarRe0_02e6NCrit9_roR1_0000_3D_extrap.dat");
            }


            // 3D TSR2
            NACA_63418_Re0_02e6_roR0_1620_3D_TSR2
            {
                data (#include "../resources/foilData/3D/TSR2/PolarRe0_02e6NCrit9_roR0_1620_3D_extrap.dat");
            }
            NACA_63418_Re0_02e6_roR0_1782_3D_TSR2
            {
                data (#include "../resources/foilData/3D/TSR2/PolarRe0_02e6NCrit9_roR0_1782_3D_extrap.dat");
            }
            NACA_63418_Re0_02e6_roR0_1830_3D_TSR2
            {
                data (#include "../resources/foilData/3D/TSR2/PolarRe0_02e6NCrit9_roR0_1830_3D_extrap.dat");
            }
            NACA_63418_Re0_04e6_roR0_2249_3D_TSR2
            {
                data (#include "../resources/foilData/3D/TSR2/PolarRe0_04e6NCrit9_roR0_2249_3D_extrap.dat");
            }
            NACA_63418_Re0_07e6_roR0_2668_3D_TSR2
            {
                data (#include "../resources/foilData/3D/TSR2/PolarRe0_07e6NCrit9_roR0_2668_3D_extrap.dat");
            }
            NACA_63418_Re0_07e6_roR0_3087_3D_TSR2
            {
                data (#include "../resources/foilData/3D/TSR2/PolarRe0_07e6NCrit9_roR0_3087_3D_extrap.dat");
            }
            NACA_63418_Re0_07e6_roR0_3506_3D_TSR2
            {
                data (#include "../resources/foilData/3D/TSR2/PolarRe0_07e6NCrit9_roR0_3506_3D_extrap.dat");
            }
            NACA_63418_Re0_07e6_roR0_3925_3D_TSR2
            {
                data (#include "../resources/foilData/3D/TSR2/PolarRe0_07e6NCrit9_roR0_3925_3D_extrap.dat");
            }
            NACA_63418_Re0_07e6_roR0_4344_3D_TSR2
            {
                data (#include "../resources/foilData/3D/TSR2/PolarRe0_07e6NCrit9_roR0_4344_3D_extrap.dat");
            }
            NACA_63418_Re0_07e6_roR0_4763_3D_TSR2
            {
                data (#include "../resources/foilData/3D/TSR2/PolarRe0_07e6NCrit9_roR0_4763_3D_extrap.dat");
            }
            NACA_63418_Re0_07e6_roR0_5182_3D_TSR2
            {
                data (#include "../resources/foilData/3D/TSR2/PolarRe0_07e6NCrit9_roR0_5182_3D_extrap.dat");
            }
            NACA_63418_Re0_07e6_roR0_5601_3D_TSR2
            {
                data (#include "../resources/foilData/3D/TSR2/PolarRe0_07e6NCrit9_roR0_5601_3D_extrap.dat");
            }
            NACA_63418_Re0_07e6_roR0_6019_3D_TSR2
            {
                data (#include "../resources/foilData/3D/TSR2/PolarRe0_07e6NCrit9_roR0_6019_3D_extrap.dat");
            }
            NACA_63418_Re0_07e6_roR0_6439_3D_TSR2
            {
                data (#include "../resources/foilData/3D/TSR2/PolarRe0_07e6NCrit9_roR0_6439_3D_extrap.dat");
            }
            NACA_63418_Re0_07e6_roR0_6858_3D_TSR2
            {
                data (#include "../resources/foilData/3D/TSR2/PolarRe0_07e6NCrit9_roR0_6858_3D_extrap.dat");
            }
            NACA_63418_Re0_07e6_roR0_7276_3D_TSR2
            {
                data (#include "../resources/foilData/3D/TSR2/PolarRe0_07e6NCrit9_roR0_7276_3D_extrap.dat");
            }
            NACA_63418_Re0_07e6_roR0_7696_3D_TSR2
            {
                data (#include "../resources/foilData/3D/TSR2/PolarRe0_07e6NCrit9_roR0_7696_3D_extrap.dat");
            }
            NACA_63418_Re0_07e6_roR0_8115_3D_TSR2
            {
                data (#include "../resources/foilData/3D/TSR2/PolarRe0_07e6NCrit9_roR0_8115_3D_extrap.dat");
            }
            NACA_63418_Re0_07e6_roR0_8533_3D_TSR2
            {
                data (#include "../resources/foilData/3D/TSR2/PolarRe0_07e6NCrit9_roR0_8533_3D_extrap.dat");
            }
            NACA_63418_Re0_07e6_roR0_8953_3D_TSR2
            {
                data (#include "../resources/foilData/3D/TSR2/PolarRe0_07e6NCrit9_roR0_8953_3D_extrap.dat");
            }
            NACA_63418_Re0_07e6_roR0_9372_3D_TSR2
            {
                data (#include "../resources/foilData/3D/TSR2/PolarRe0_07e6NCrit9_roR0_9372_3D_extrap.dat");
            }
            NACA_63418_Re0_07e6_roR0_9790_3D_TSR2
            {
                data (#include "../resources/foilData/3D/TSR2/PolarRe0_07e6NCrit9_roR0_9790_3D_extrap.dat");
            }
            NACA_63418_Re0_04e6_roR1_0000_3D_TSR2
            {
                data (#include "../resources/foilData/3D/TSR2/PolarRe0_04e6NCrit9_roR1_0000_3D_extrap.dat");
            }


            // 3D TSR3
            NACA_63418_Re0_02e6_roR0_1620_3D_TSR3
            {
                data (#include "../resources/foilData/3D/TSR3/PolarRe0_02e6NCrit9_roR0_1620_3D_extrap.dat");
            }
            NACA_63418_Re0_02e6_roR0_1782_3D_TSR3
            {
                data (#include "../resources/foilData/3D/TSR3/PolarRe0_02e6NCrit9_roR0_1782_3D_extrap.dat");
            }
            NACA_63418_Re0_02e6_roR0_1830_3D_TSR3
            {
                data (#include "../resources/foilData/3D/TSR3/PolarRe0_02e6NCrit9_roR0_1830_3D_extrap.dat");
            }
            NACA_63418_Re0_05e6_roR0_2249_3D_TSR3
            {
                data (#include "../resources/foilData/3D/TSR3/PolarRe0_05e6NCrit9_roR0_2249_3D_extrap.dat");
            }
            NACA_63418_Re0_08e6_roR0_2668_3D_TSR3
            {
                data (#include "../resources/foilData/3D/TSR3/PolarRe0_08e6NCrit9_roR0_2668_3D_extrap.dat");
            }
            NACA_63418_Re0_09e6_roR0_3087_3D_TSR3
            {
                data (#include "../resources/foilData/3D/TSR3/PolarRe0_09e6NCrit9_roR0_3087_3D_extrap.dat");
            }
            NACA_63418_Re0_09e6_roR0_3506_3D_TSR3
            {
                data (#include "../resources/foilData/3D/TSR3/PolarRe0_09e6NCrit9_roR0_3506_3D_extrap.dat");
            }
            NACA_63418_Re0_09e6_roR0_3925_3D_TSR3
            {
                data (#include "../resources/foilData/3D/TSR3/PolarRe0_09e6NCrit9_roR0_3925_3D_extrap.dat");
            }
            NACA_63418_Re0_09e6_roR0_4344_3D_TSR3
            {
                data (#include "../resources/foilData/3D/TSR3/PolarRe0_09e6NCrit9_roR0_4344_3D_extrap.dat");
            }
            NACA_63418_Re0_09e6_roR0_4763_3D_TSR3
            {
                data (#include "../resources/foilData/3D/TSR3/PolarRe0_09e6NCrit9_roR0_4763_3D_extrap.dat");
            }
            NACA_63418_Re0_09e6_roR0_5182_3D_TSR3
            {
                data (#include "../resources/foilData/3D/TSR3/PolarRe0_09e6NCrit9_roR0_5182_3D_extrap.dat");
            }
            NACA_63418_Re0_09e6_roR0_5601_3D_TSR3
            {
                data (#include "../resources/foilData/3D/TSR3/PolarRe0_09e6NCrit9_roR0_5601_3D_extrap.dat");
            }
            NACA_63418_Re0_09e6_roR0_6019_3D_TSR3
            {
                data (#include "../resources/foilData/3D/TSR3/PolarRe0_09e6NCrit9_roR0_6019_3D_extrap.dat");
            }
            NACA_63418_Re0_09e6_roR0_6439_3D_TSR3
            {
                data (#include "../resources/foilData/3D/TSR3/PolarRe0_09e6NCrit9_roR0_6439_3D_extrap.dat");
            }
            NACA_63418_Re0_09e6_roR0_6858_3D_TSR3
            {
                data (#include "../resources/foilData/3D/TSR3/PolarRe0_09e6NCrit9_roR0_6858_3D_extrap.dat");
            }
            NACA_63418_Re0_09e6_roR0_7276_3D_TSR3
            {
                data (#include "../resources/foilData/3D/TSR3/PolarRe0_09e6NCrit9_roR0_7276_3D_extrap.dat");
            }
            NACA_63418_Re0_09e6_roR0_7696_3D_TSR3
            {
                data (#include "../resources/foilData/3D/TSR3/PolarRe0_09e6NCrit9_roR0_7696_3D_extrap.dat");
            }
            NACA_63418_Re0_10e6_roR0_8115_3D_TSR3
            {
                data (#include "../resources/foilData/3D/TSR3/PolarRe0_10e6NCrit9_roR0_8115_3D_extrap.dat");
            }
            NACA_63418_Re0_10e6_roR0_8533_3D_TSR3
            {
                data (#include "../resources/foilData/3D/TSR3/PolarRe0_10e6NCrit9_roR0_8533_3D_extrap.dat");
            }
            NACA_63418_Re0_10e6_roR0_8953_3D_TSR3
            {
                data (#include "../resources/foilData/3D/TSR3/PolarRe0_10e6NCrit9_roR0_8953_3D_extrap.dat");
            }
            NACA_63418_Re0_10e6_roR0_9372_3D_TSR3
            {
                data (#include "../resources/foilData/3D/TSR3/PolarRe0_10e6NCrit9_roR0_9372_3D_extrap.dat");
            }
            NACA_63418_Re0_10e6_roR0_9790_3D_TSR3
            {
                data (#include "../resources/foilData/3D/TSR3/PolarRe0_10e6NCrit9_roR0_9790_3D_extrap.dat");
            }
            NACA_63418_Re0_06e6_roR1_0000_3D_TSR3
            {
                data (#include "../resources/foilData/3D/TSR3/PolarRe0_06e6NCrit9_roR1_0000_3D_extrap.dat");
            }


            // 3D TSR4
            NACA_63418_Re0_02e6_roR0_1620_3D_TSR4
            {
                data (#include "../resources/foilData/3D/TSR4/PolarRe0_02e6NCrit9_roR0_1620_3D_extrap.dat");
            }
            NACA_63418_Re0_02e6_roR0_1782_3D_TSR4
            {
                data (#include "../resources/foilData/3D/TSR4/PolarRe0_02e6NCrit9_roR0_1782_3D_extrap.dat");
            }
            NACA_63418_Re0_02e6_roR0_1830_3D_TSR4
            {
                data (#include "../resources/foilData/3D/TSR4/PolarRe0_02e6NCrit9_roR0_1830_3D_extrap.dat");
            }
            NACA_63418_Re0_05e6_roR0_2249_3D_TSR4
            {
                data (#include "../resources/foilData/3D/TSR4/PolarRe0_05e6NCrit9_roR0_2249_3D_extrap.dat");
            }
            NACA_63418_Re0_10e6_roR0_2668_3D_TSR4
            {
                data (#include "../resources/foilData/3D/TSR4/PolarRe0_10e6NCrit9_roR0_2668_3D_extrap.dat");
            }
            NACA_63418_Re0_10e6_roR0_3087_3D_TSR4
            {
                data (#include "../resources/foilData/3D/TSR4/PolarRe0_10e6NCrit9_roR0_3087_3D_extrap.dat");
            }
            NACA_63418_Re0_10e6_roR0_3506_3D_TSR4
            {
                data (#include "../resources/foilData/3D/TSR4/PolarRe0_10e6NCrit9_roR0_3506_3D_extrap.dat");
            }
            NACA_63418_Re0_11e6_roR0_3925_3D_TSR4
            {
                data (#include "../resources/foilData/3D/TSR4/PolarRe0_11e6NCrit9_roR0_3925_3D_extrap.dat");
            }
            NACA_63418_Re0_11e6_roR0_4344_3D_TSR4
            {
                data (#include "../resources/foilData/3D/TSR4/PolarRe0_11e6NCrit9_roR0_4344_3D_extrap.dat");
            }
            NACA_63418_Re0_11e6_roR0_4763_3D_TSR4
            {
                data (#include "../resources/foilData/3D/TSR4/PolarRe0_11e6NCrit9_roR0_4763_3D_extrap.dat");
            }
            NACA_63418_Re0_11e6_roR0_5182_3D_TSR4
            {
                data (#include "../resources/foilData/3D/TSR4/PolarRe0_11e6NCrit9_roR0_5182_3D_extrap.dat");
            }
            NACA_63418_Re0_11e6_roR0_5601_3D_TSR4
            {
                data (#include "../resources/foilData/3D/TSR4/PolarRe0_11e6NCrit9_roR0_5601_3D_extrap.dat");
            }
            NACA_63418_Re0_12e6_roR0_6019_3D_TSR4
            {
                data (#include "../resources/foilData/3D/TSR4/PolarRe0_12e6NCrit9_roR0_6019_3D_extrap.dat");
            }
            NACA_63418_Re0_12e6_roR0_6439_3D_TSR4
            {
                data (#include "../resources/foilData/3D/TSR4/PolarRe0_12e6NCrit9_roR0_6439_3D_extrap.dat");
            }
            NACA_63418_Re0_12e6_roR0_6858_3D_TSR4
            {
                data (#include "../resources/foilData/3D/TSR4/PolarRe0_12e6NCrit9_roR0_6858_3D_extrap.dat");
            }
            NACA_63418_Re0_12e6_roR0_7276_3D_TSR4
            {
                data (#include "../resources/foilData/3D/TSR4/PolarRe0_12e6NCrit9_roR0_7276_3D_extrap.dat");
            }
            NACA_63418_Re0_12e6_roR0_7696_3D_TSR4
            {
                data (#include "../resources/foilData/3D/TSR4/PolarRe0_12e6NCrit9_roR0_7696_3D_extrap.dat");
            }
            NACA_63418_Re0_12e6_roR0_8115_3D_TSR4
            {
                data (#include "../resources/foilData/3D/TSR4/PolarRe0_12e6NCrit9_roR0_8115_3D_extrap.dat");
            }
            NACA_63418_Re0_13e6_roR0_8533_3D_TSR4
            {
                data (#include "../resources/foilData/3D/TSR4/PolarRe0_13e6NCrit9_roR0_8533_3D_extrap.dat");
            }
            NACA_63418_Re0_13e6_roR0_8953_3D_TSR4
            {
                data (#include "../resources/foilData/3D/TSR4/PolarRe0_13e6NCrit9_roR0_8953_3D_extrap.dat");
            }
            NACA_63418_Re0_13e6_roR0_9372_3D_TSR4
            {
                data (#include "../resources/foilData/3D/TSR4/PolarRe0_13e6NCrit9_roR0_9372_3D_extrap.dat");
            }
            NACA_63418_Re0_13e6_roR0_9790_3D_TSR4
            {
                data (#include "../resources/foilData/3D/TSR4/PolarRe0_13e6NCrit9_roR0_9790_3D_extrap.dat");
            }
            NACA_63418_Re0_07e6_roR1_0000_3D_TSR4
            {
                data (#include "../resources/foilData/3D/TSR4/PolarRe0_07e6NCrit9_roR1_0000_3D_extrap.dat");
            }


            // 3D TSR5
            NACA_63418_Re0_02e6_roR0_1620_3D_TSR5
            {
                data (#include "../resources/foilData/3D/TSR5/PolarRe0_02e6NCrit9_roR0_1620_3D_extrap.dat");
            }
            NACA_63418_Re0_02e6_roR0_1782_3D_TSR5
            {
                data (#include "../resources/foilData/3D/TSR5/PolarRe0_02e6NCrit9_roR0_1782_3D_extrap.dat");
            }
            NACA_63418_Re0_02e6_roR0_1830_3D_TSR5
            {
                data (#include "../resources/foilData/3D/TSR5/PolarRe0_02e6NCrit9_roR0_1830_3D_extrap.dat");
            }
            NACA_63418_Re0_06e6_roR0_2249_3D_TSR5
            {
                data (#include "../resources/foilData/3D/TSR5/PolarRe0_06e6NCrit9_roR0_2249_3D_extrap.dat");
            }
            NACA_63418_Re0_11e6_roR0_2668_3D_TSR5
            {
                data (#include "../resources/foilData/3D/TSR5/PolarRe0_11e6NCrit9_roR0_2668_3D_extrap.dat");
            }
            NACA_63418_Re0_12e6_roR0_3087_3D_TSR5
            {
                data (#include "../resources/foilData/3D/TSR5/PolarRe0_12e6NCrit9_roR0_3087_3D_extrap.dat");
            }
            NACA_63418_Re0_12e6_roR0_3506_3D_TSR5
            {
                data (#include "../resources/foilData/3D/TSR5/PolarRe0_12e6NCrit9_roR0_3506_3D_extrap.dat");
            }
            NACA_63418_Re0_13e6_roR0_3925_3D_TSR5
            {
                data (#include "../resources/foilData/3D/TSR5/PolarRe0_13e6NCrit9_roR0_3925_3D_extrap.dat");
            }
            NACA_63418_Re0_13e6_roR0_4344_3D_TSR5
            {
                data (#include "../resources/foilData/3D/TSR5/PolarRe0_13e6NCrit9_roR0_4344_3D_extrap.dat");
            }
            NACA_63418_Re0_13e6_roR0_4763_3D_TSR5
            {
                data (#include "../resources/foilData/3D/TSR5/PolarRe0_13e6NCrit9_roR0_4763_3D_extrap.dat");
            }
            NACA_63418_Re0_14e6_roR0_5182_3D_TSR5
            {
                data (#include "../resources/foilData/3D/TSR5/PolarRe0_14e6NCrit9_roR0_5182_3D_extrap.dat");
            }
            NACA_63418_Re0_14e6_roR0_5601_3D_TSR5
            {
                data (#include "../resources/foilData/3D/TSR5/PolarRe0_14e6NCrit9_roR0_5601_3D_extrap.dat");
            }
            NACA_63418_Re0_14e6_roR0_6019_3D_TSR5
            {
                data (#include "../resources/foilData/3D/TSR5/PolarRe0_14e6NCrit9_roR0_6019_3D_extrap.dat");
            }
            NACA_63418_Re0_14e6_roR0_6439_3D_TSR5
            {
                data (#include "../resources/foilData/3D/TSR5/PolarRe0_14e6NCrit9_roR0_6439_3D_extrap.dat");
            }
            NACA_63418_Re0_15e6_roR0_6858_3D_TSR5
            {
                data (#include "../resources/foilData/3D/TSR5/PolarRe0_15e6NCrit9_roR0_6858_3D_extrap.dat");
            }
            NACA_63418_Re0_15e6_roR0_7276_3D_TSR5
            {
                data (#include "../resources/foilData/3D/TSR5/PolarRe0_15e6NCrit9_roR0_7276_3D_extrap.dat");
            }
            NACA_63418_Re0_15e6_roR0_7696_3D_TSR5
            {
                data (#include "../resources/foilData/3D/TSR5/PolarRe0_15e6NCrit9_roR0_7696_3D_extrap.dat");
            }
            NACA_63418_Re0_15e6_roR0_8115_3D_TSR5
            {
                data (#include "../resources/foilData/3D/TSR5/PolarRe0_15e6NCrit9_roR0_8115_3D_extrap.dat");
            }
            NACA_63418_Re0_15e6_roR0_8533_3D_TSR5
            {
                data (#include "../resources/foilData/3D/TSR5/PolarRe0_15e6NCrit9_roR0_8533_3D_extrap.dat");
            }
            NACA_63418_Re0_16e6_roR0_8953_3D_TSR5
            {
                data (#include "../resources/foilData/3D/TSR5/PolarRe0_16e6NCrit9_roR0_8953_3D_extrap.dat");
            }
            NACA_63418_Re0_16e6_roR0_9372_3D_TSR5
            {
                data (#include "../resources/foilData/3D/TSR5/PolarRe0_16e6NCrit9_roR0_9372_3D_extrap.dat");
            }
            NACA_63418_Re0_16e6_roR0_9790_3D_TSR5
            {
                data (#include "../resources/foilData/3D/TSR5/PolarRe0_16e6NCrit9_roR0_9790_3D_extrap.dat");
            }
            NACA_63418_Re0_09e6_roR1_0000_3D_TSR5
            {
                data (#include "../resources/foilData/3D/TSR5/PolarRe0_09e6NCrit9_roR1_0000_3D_extrap.dat");
            }


            // 3D TSR6
            NACA_63418_Re0_02e6_roR0_1620_3D_TSR6
            {
                data (#include "../resources/foilData/3D/TSR6/PolarRe0_02e6NCrit9_roR0_1620_3D_extrap.dat");
            }
            NACA_63418_Re0_02e6_roR0_1782_3D_TSR6
            {
                data (#include "../resources/foilData/3D/TSR6/PolarRe0_02e6NCrit9_roR0_1782_3D_extrap.dat");
            }
            NACA_63418_Re0_02e6_roR0_1830_3D_TSR6
            {
                data (#include "../resources/foilData/3D/TSR6/PolarRe0_02e6NCrit9_roR0_1830_3D_extrap.dat");
            }
            NACA_63418_Re0_07e6_roR0_2249_3D_TSR6
            {
                data (#include "../resources/foilData/3D/TSR6/PolarRe0_07e6NCrit9_roR0_2249_3D_extrap.dat");
            }
            NACA_63418_Re0_12e6_roR0_2668_3D_TSR6
            {
                data (#include "../resources/foilData/3D/TSR6/PolarRe0_12e6NCrit9_roR0_2668_3D_extrap.dat");
            }
            NACA_63418_Re0_13e6_roR0_3087_3D_TSR6
            {
                data (#include "../resources/foilData/3D/TSR6/PolarRe0_13e6NCrit9_roR0_3087_3D_extrap.dat");
            }
            NACA_63418_Re0_14e6_roR0_3506_3D_TSR6
            {
                data (#include "../resources/foilData/3D/TSR6/PolarRe0_14e6NCrit9_roR0_3506_3D_extrap.dat");
            }
            NACA_63418_Re0_15e6_roR0_3925_3D_TSR6
            {
                data (#include "../resources/foilData/3D/TSR6/PolarRe0_15e6NCrit9_roR0_3925_3D_extrap.dat");
            }
            NACA_63418_Re0_15e6_roR0_4344_3D_TSR6
            {
                data (#include "../resources/foilData/3D/TSR6/PolarRe0_15e6NCrit9_roR0_4344_3D_extrap.dat");
            }
            NACA_63418_Re0_15e6_roR0_4763_3D_TSR6
            {
                data (#include "../resources/foilData/3D/TSR6/PolarRe0_15e6NCrit9_roR0_4763_3D_extrap.dat");
            }
            NACA_63418_Re0_16e6_roR0_5182_3D_TSR6
            {