/*---------------------------------------------------------------------------*\
| =========                 |                                                 |
| \\      /  F ield         | OpenFOAM: The Open Source CFD Toolbox           |
|  \\    /   O peration     | Version:  1.3                                   |
|   \\  /    A nd           | Web:      http://www.openfoam.org               |
|    \\/     M anipulation  |                                                 |
\*---------------------------------------------------------------------------*/
FoamFile
{
    version     2.0;
    format      ascii;
    class       dictionary;
    location    "constant";
    object      waveDict;
}
// * * * * * * * * * * * * * * * * * * * * * * * * * * * * * * * * * * * * * //

#include "../setup"

waveType        $waveType;

waveTheory      $waveTheory;

genAbs          1;

absDir          0.0;

nPaddles        1;

waveHeight      $waveHeight;

wavePeriod      $wavePeriod;

waveDir         $waveDir;

wavePhase       $wavePhase;

uCurrent        ($U_mean 0. 0.);

//tSmooth         0.25;

// ************************************************************************* //
